<?xml version="1.0" encoding="UTF-8"?>

<!-- generated on 2023-05-18 13:11:21 by Eclipse SUMO netedit Version 1.15.0
<configuration xmlns:xsi="http://www.w3.org/2001/XMLSchema-instance" xsi:noNamespaceSchemaLocation="http://sumo.dlr.de/xsd/netconvertConfiguration.xsd">

    <input>
        <sumo-net-file value="sumocfg/freeway.net.xml"/>
    </input>

    <output>
        <output-file value="sumocfg/freeway.net.xml"/>
    </output>

    <processing>
        <geometry.min-radius.fix.railways value="false"/>
        <geometry.max-grade.fix value="false"/>
        <offset.disable-normalization value="true"/>
        <lefthand value="0"/>
    </processing>

    <junctions>
        <no-turnarounds value="true"/>
        <junctions.corner-detail value="0"/>
        <junctions.limit-turn-speed value="-1.00"/>
        <rectangular-lane-cut value="0"/>
    </junctions>

    <pedestrian>
        <walkingareas value="0"/>
    </pedestrian>

</configuration>
-->

<net version="1.9" xmlns:xsi="http://www.w3.org/2001/XMLSchema-instance" xsi:noNamespaceSchemaLocation="http://sumo.dlr.de/xsd/net_file.xsd">

    <location netOffset="0.00,254.00" convBoundary="0.00,0.00,50000.00,254.00" origBoundary="0.00,-254.00,50000.00,0.00" projParameter="!"/>

    <edge id=":node_0_1_0" function="internal">
        <lane id=":node_0_1_0_0" index="0" speed="90.11" length="0.10" shape="9400.00,246.00 9400.00,246.00"/>
        <lane id=":node_0_1_0_1" index="1" speed="90.11" length="0.10" shape="9400.00,249.20 9400.00,249.20"/>
        <lane id=":node_0_1_0_2" index="2" speed="90.11" length="0.10" shape="9400.00,252.40 9400.00,252.40"/>
    </edge>
    <edge id=":node_0_2_0" function="internal">
        <lane id=":node_0_2_0_0" index="0" speed="57.55" length="15.06" shape="9608.04,246.00 9612.73,245.56 9616.16,244.43 9619.03,242.88 9622.06,241.18"/>
    </edge>
    <edge id=":node_0_2_1" function="internal">
        <lane id=":node_0_2_1_0" index="0" speed="90.11" length="15.16" shape="9608.04,246.00 9623.20,246.00"/>
        <lane id=":node_0_2_1_1" index="1" speed="90.11" length="15.16" shape="9608.04,249.20 9623.20,249.20"/>
        <lane id=":node_0_2_1_2" index="2" speed="90.11" length="15.16" shape="9608.04,252.40 9623.20,252.40"/>
    </edge>
    <edge id=":node_0_3_0" function="internal">
        <lane id=":node_0_3_0_0" index="0" speed="57.55" length="15.06" shape="9777.94,241.18 9780.97,242.88 9783.84,244.43 9787.27,245.56 9791.96,246.00"/>
    </edge>
    <edge id=":node_0_3_1" function="internal">
        <lane id=":node_0_3_1_0" index="0" speed="90.11" length="15.16" shape="9776.80,246.00 9791.96,246.00"/>
        <lane id=":node_0_3_1_1" index="1" speed="90.11" length="15.16" shape="9776.80,249.20 9791.96,249.20"/>
        <lane id=":node_0_3_1_2" index="2" speed="90.11" length="15.16" shape="9776.80,252.40 9791.96,252.40"/>
    </edge>
    <edge id=":node_0_4_0" function="internal">
        <lane id=":node_0_4_0_0" index="0" speed="90.11" length="0.10" shape="10000.00,246.00 10000.00,246.00"/>
        <lane id=":node_0_4_0_1" index="1" speed="90.11" length="0.10" shape="10000.00,249.20 10000.00,249.20"/>
        <lane id=":node_0_4_0_2" index="2" speed="90.11" length="0.10" shape="10000.00,252.40 10000.00,252.40"/>
    </edge>
    <edge id=":node_0_5_0" function="internal">
        <lane id=":node_0_5_0_0" index="0" speed="25.00" length="6.22" shape="9701.60,199.55 9701.79,201.16 9702.37,202.53 9703.34,203.67 9704.70,204.56"/>
    </edge>
    <edge id=":node_0_5_1" function="internal">
        <lane id=":node_0_5_1_0" index="0" speed="25.00" length="1.44" shape="9701.60,199.55 9700.80,200.75"/>
    </edge>
    <edge id=":node_0_5_4" function="internal">
        <lane id=":node_0_5_4_0" index="0" speed="25.00" length="3.23" shape="9700.80,200.75 9700.00,201.15 9699.20,200.75 9698.40,199.55"/>
    </edge>
    <edge id=":node_0_5_2" function="internal">
        <lane id=":node_0_5_2_0" index="0" speed="25.00" length="6.22" shape="9695.30,204.56 9696.66,203.67 9697.63,202.53 9698.21,201.16 9698.40,199.55"/>
    </edge>
    <edge id=":node_0_5_3" function="internal">
        <lane id=":node_0_5_3_0" index="0" speed="25.00" length="5.85" shape="9695.30,204.56 9697.65,203.68 9700.00,203.39 9700.97,203.51"/>
    </edge>
    <edge id=":node_0_5_5" function="internal">
        <lane id=":node_0_5_5_0" index="0" speed="25.00" length="3.90" shape="9700.97,203.51 9702.35,203.68 9704.70,204.56"/>
    </edge>
    <edge id=":node_0_6_0" function="internal">
        <lane id=":node_0_6_0_0" index="0" speed="25.00" length="0.10" shape="9698.40,4.00 9698.40,4.00"/>
    </edge>
    <edge id=":node_0_6_1" function="internal">
        <lane id=":node_0_6_1_0" index="0" speed="25.00" length="2.34" shape="9698.40,4.00 9699.20,2.80 9700.00,2.40"/>
    </edge>
    <edge id=":node_0_6_4" function="internal">
        <lane id=":node_0_6_4_0" index="0" speed="25.00" length="2.34" shape="9700.00,2.40 9700.80,2.80 9701.60,4.00"/>
    </edge>
    <edge id=":node_0_6_2" function="internal">
        <lane id=":node_0_6_2_0" index="0" speed="25.00" length="0.10" shape="9701.60,4.00 9701.60,4.00"/>
    </edge>
    <edge id=":node_0_6_3" function="internal">
        <lane id=":node_0_6_3_0" index="0" speed="25.00" length="2.34" shape="9701.60,4.00 9700.80,5.20 9700.00,5.60"/>
    </edge>
    <edge id=":node_0_6_5" function="internal">
        <lane id=":node_0_6_5_0" index="0" speed="25.00" length="2.34" shape="9700.00,5.60 9699.20,5.20 9698.40,4.00"/>
    </edge>
    <edge id=":node_0_7_0" function="internal">
        <lane id=":node_0_7_0_0" index="0" speed="25.00" length="4.67" shape="9698.40,0.00 9699.20,-1.20 9700.00,-1.60 9700.80,-1.20 9701.60,0.00"/>
    </edge>
    <edge id=":node_1_1_0" function="internal">
        <lane id=":node_1_1_0_0" index="0" speed="90.11" length="0.10" shape="19400.00,246.00 19400.00,246.00"/>
        <lane id=":node_1_1_0_1" index="1" speed="90.11" length="0.10" shape="19400.00,249.20 19400.00,249.20"/>
        <lane id=":node_1_1_0_2" index="2" speed="90.11" length="0.10" shape="19400.00,252.40 19400.00,252.40"/>
    </edge>
    <edge id=":node_1_2_0" function="internal">
        <lane id=":node_1_2_0_0" index="0" speed="57.55" length="15.06" shape="19608.04,246.00 19612.73,245.56 19616.16,244.43 19619.03,242.88 19622.06,241.18"/>
    </edge>
    <edge id=":node_1_2_1" function="internal">
        <lane id=":node_1_2_1_0" index="0" speed="90.11" length="15.16" shape="19608.04,246.00 19623.20,246.00"/>
        <lane id=":node_1_2_1_1" index="1" speed="90.11" length="15.16" shape="19608.04,249.20 19623.20,249.20"/>
        <lane id=":node_1_2_1_2" index="2" speed="90.11" length="15.16" shape="19608.04,252.40 19623.20,252.40"/>
    </edge>
    <edge id=":node_1_3_0" function="internal">
        <lane id=":node_1_3_0_0" index="0" speed="57.55" length="15.06" shape="19777.94,241.18 19780.97,242.88 19783.84,244.43 19787.27,245.56 19791.96,246.00"/>
    </edge>
    <edge id=":node_1_3_1" function="internal">
        <lane id=":node_1_3_1_0" index="0" speed="90.11" length="15.16" shape="19776.80,246.00 19791.96,246.00"/>
        <lane id=":node_1_3_1_1" index="1" speed="90.11" length="15.16" shape="19776.80,249.20 19791.96,249.20"/>
        <lane id=":node_1_3_1_2" index="2" speed="90.11" length="15.16" shape="19776.80,252.40 19791.96,252.40"/>
    </edge>
    <edge id=":node_1_4_0" function="internal">
        <lane id=":node_1_4_0_0" index="0" speed="90.11" length="0.10" shape="20000.00,246.00 20000.00,246.00"/>
        <lane id=":node_1_4_0_1" index="1" speed="90.11" length="0.10" shape="20000.00,249.20 20000.00,249.20"/>
        <lane id=":node_1_4_0_2" index="2" speed="90.11" length="0.10" shape="20000.00,252.40 20000.00,252.40"/>
    </edge>
    <edge id=":node_1_5_0" function="internal">
        <lane id=":node_1_5_0_0" index="0" speed="25.00" length="6.22" shape="19701.60,199.55 19701.79,201.16 19702.37,202.53 19703.34,203.67 19704.70,204.56"/>
    </edge>
    <edge id=":node_1_5_1" function="internal">
        <lane id=":node_1_5_1_0" index="0" speed="25.00" length="1.44" shape="19701.60,199.55 19700.80,200.75"/>
    </edge>
    <edge id=":node_1_5_4" function="internal">
        <lane id=":node_1_5_4_0" index="0" speed="25.00" length="3.23" shape="19700.80,200.75 19700.00,201.15 19699.20,200.75 19698.40,199.55"/>
    </edge>
    <edge id=":node_1_5_2" function="internal">
        <lane id=":node_1_5_2_0" index="0" speed="25.00" length="6.22" shape="19695.30,204.56 19696.66,203.67 19697.63,202.53 19698.21,201.16 19698.40,199.55"/>
    </edge>
    <edge id=":node_1_5_3" function="internal">
        <lane id=":node_1_5_3_0" index="0" speed="25.00" length="5.85" shape="19695.30,204.56 19697.65,203.68 19700.00,203.39 19700.97,203.51"/>
    </edge>
    <edge id=":node_1_5_5" function="internal">
        <lane id=":node_1_5_5_0" index="0" speed="25.00" length="3.90" shape="19700.97,203.51 19702.35,203.68 19704.70,204.56"/>
    </edge>
    <edge id=":node_1_6_0" function="internal">
        <lane id=":node_1_6_0_0" index="0" speed="25.00" length="0.10" shape="19698.40,4.00 19698.40,4.00"/>
    </edge>
    <edge id=":node_1_6_1" function="internal">
        <lane id=":node_1_6_1_0" index="0" speed="25.00" length="2.34" shape="19698.40,4.00 19699.20,2.80 19700.00,2.40"/>
    </edge>
    <edge id=":node_1_6_4" function="internal">
        <lane id=":node_1_6_4_0" index="0" speed="25.00" length="2.34" shape="19700.00,2.40 19700.80,2.80 19701.60,4.00"/>
    </edge>
    <edge id=":node_1_6_2" function="internal">
        <lane id=":node_1_6_2_0" index="0" speed="25.00" length="0.10" shape="19701.60,4.00 19701.60,4.00"/>
    </edge>
    <edge id=":node_1_6_3" function="internal">
        <lane id=":node_1_6_3_0" index="0" speed="25.00" length="2.34" shape="19701.60,4.00 19700.80,5.20 19700.00,5.60"/>
    </edge>
    <edge id=":node_1_6_5" function="internal">
        <lane id=":node_1_6_5_0" index="0" speed="25.00" length="2.34" shape="19700.00,5.60 19699.20,5.20 19698.40,4.00"/>
    </edge>
    <edge id=":node_1_7_0" function="internal">
        <lane id=":node_1_7_0_0" index="0" speed="25.00" length="4.67" shape="19698.40,0.00 19699.20,-1.20 19700.00,-1.60 19700.80,-1.20 19701.60,0.00"/>
    </edge>
    <edge id=":node_2_1_0" function="internal">
        <lane id=":node_2_1_0_0" index="0" speed="90.11" length="0.10" shape="29400.00,246.00 29400.00,246.00"/>
        <lane id=":node_2_1_0_1" index="1" speed="90.11" length="0.10" shape="29400.00,249.20 29400.00,249.20"/>
        <lane id=":node_2_1_0_2" index="2" speed="90.11" length="0.10" shape="29400.00,252.40 29400.00,252.40"/>
    </edge>
    <edge id=":node_2_2_0" function="internal">
        <lane id=":node_2_2_0_0" index="0" speed="57.55" length="15.06" shape="29608.04,246.00 29612.73,245.56 29616.16,244.43 29619.03,242.88 29622.06,241.18"/>
    </edge>
    <edge id=":node_2_2_1" function="internal">
        <lane id=":node_2_2_1_0" index="0" speed="90.11" length="15.16" shape="29608.04,246.00 29623.20,246.00"/>
        <lane id=":node_2_2_1_1" index="1" speed="90.11" length="15.16" shape="29608.04,249.20 29623.20,249.20"/>
        <lane id=":node_2_2_1_2" index="2" speed="90.11" length="15.16" shape="29608.04,252.40 29623.20,252.40"/>
    </edge>
    <edge id=":node_2_3_0" function="internal">
        <lane id=":node_2_3_0_0" index="0" speed="57.55" length="15.06" shape="29777.94,241.18 29780.97,242.88 29783.84,244.43 29787.27,245.56 29791.96,246.00"/>
    </edge>
    <edge id=":node_2_3_1" function="internal">
        <lane id=":node_2_3_1_0" index="0" speed="90.11" length="15.16" shape="29776.80,246.00 29791.96,246.00"/>
        <lane id=":node_2_3_1_1" index="1" speed="90.11" length="15.16" shape="29776.80,249.20 29791.96,249.20"/>
        <lane id=":node_2_3_1_2" index="2" speed="90.11" length="15.16" shape="29776.80,252.40 29791.96,252.40"/>
    </edge>
    <edge id=":node_2_4_0" function="internal">
        <lane id=":node_2_4_0_0" index="0" speed="90.11" length="0.10" shape="30000.00,246.00 30000.00,246.00"/>
        <lane id=":node_2_4_0_1" index="1" speed="90.11" length="0.10" shape="30000.00,249.20 30000.00,249.20"/>
        <lane id=":node_2_4_0_2" index="2" speed="90.11" length="0.10" shape="30000.00,252.40 30000.00,252.40"/>
    </edge>
    <edge id=":node_2_5_0" function="internal">
        <lane id=":node_2_5_0_0" index="0" speed="25.00" length="6.22" shape="29701.60,199.55 29701.79,201.16 29702.37,202.53 29703.34,203.67 29704.70,204.56"/>
    </edge>
    <edge id=":node_2_5_1" function="internal">
        <lane id=":node_2_5_1_0" index="0" speed="25.00" length="1.44" shape="29701.60,199.55 29700.80,200.75"/>
    </edge>
    <edge id=":node_2_5_4" function="internal">
        <lane id=":node_2_5_4_0" index="0" speed="25.00" length="3.23" shape="29700.80,200.75 29700.00,201.15 29699.20,200.75 29698.40,199.55"/>
    </edge>
    <edge id=":node_2_5_2" function="internal">
        <lane id=":node_2_5_2_0" index="0" speed="25.00" length="6.22" shape="29695.30,204.56 29696.66,203.67 29697.63,202.53 29698.21,201.16 29698.40,199.55"/>
    </edge>
    <edge id=":node_2_5_3" function="internal">
        <lane id=":node_2_5_3_0" index="0" speed="25.00" length="5.85" shape="29695.30,204.56 29697.65,203.68 29700.00,203.39 29700.97,203.51"/>
    </edge>
    <edge id=":node_2_5_5" function="internal">
        <lane id=":node_2_5_5_0" index="0" speed="25.00" length="3.90" shape="29700.97,203.51 29702.35,203.68 29704.70,204.56"/>
    </edge>
    <edge id=":node_2_6_0" function="internal">
        <lane id=":node_2_6_0_0" index="0" speed="25.00" length="0.10" shape="29698.40,4.00 29698.40,4.00"/>
    </edge>
    <edge id=":node_2_6_1" function="internal">
        <lane id=":node_2_6_1_0" index="0" speed="25.00" length="2.34" shape="29698.40,4.00 29699.20,2.80 29700.00,2.40"/>
    </edge>
    <edge id=":node_2_6_4" function="internal">
        <lane id=":node_2_6_4_0" index="0" speed="25.00" length="2.34" shape="29700.00,2.40 29700.80,2.80 29701.60,4.00"/>
    </edge>
    <edge id=":node_2_6_2" function="internal">
        <lane id=":node_2_6_2_0" index="0" speed="25.00" length="0.10" shape="29701.60,4.00 29701.60,4.00"/>
    </edge>
    <edge id=":node_2_6_3" function="internal">
        <lane id=":node_2_6_3_0" index="0" speed="25.00" length="2.34" shape="29701.60,4.00 29700.80,5.20 29700.00,5.60"/>
    </edge>
    <edge id=":node_2_6_5" function="internal">
        <lane id=":node_2_6_5_0" index="0" speed="25.00" length="2.34" shape="29700.00,5.60 29699.20,5.20 29698.40,4.00"/>
    </edge>
    <edge id=":node_2_7_0" function="internal">
        <lane id=":node_2_7_0_0" index="0" speed="25.00" length="4.67" shape="29698.40,0.00 29699.20,-1.20 29700.00,-1.60 29700.80,-1.20 29701.60,0.00"/>
    </edge>
    <edge id=":node_3_1_0" function="internal">
        <lane id=":node_3_1_0_0" index="0" speed="90.11" length="0.10" shape="39400.00,246.00 39400.00,246.00"/>
        <lane id=":node_3_1_0_1" index="1" speed="90.11" length="0.10" shape="39400.00,249.20 39400.00,249.20"/>
        <lane id=":node_3_1_0_2" index="2" speed="90.11" length="0.10" shape="39400.00,252.40 39400.00,252.40"/>
    </edge>
    <edge id=":node_3_2_0" function="internal">
        <lane id=":node_3_2_0_0" index="0" speed="57.55" length="15.06" shape="39608.04,246.00 39612.73,245.56 39616.16,244.43 39619.03,242.88 39622.06,241.18"/>
    </edge>
    <edge id=":node_3_2_1" function="internal">
        <lane id=":node_3_2_1_0" index="0" speed="90.11" length="15.16" shape="39608.04,246.00 39623.20,246.00"/>
        <lane id=":node_3_2_1_1" index="1" speed="90.11" length="15.16" shape="39608.04,249.20 39623.20,249.20"/>
        <lane id=":node_3_2_1_2" index="2" speed="90.11" length="15.16" shape="39608.04,252.40 39623.20,252.40"/>
    </edge>
    <edge id=":node_3_3_0" function="internal">
        <lane id=":node_3_3_0_0" index="0" speed="57.55" length="15.06" shape="39777.94,241.18 39780.97,242.88 39783.84,244.43 39787.27,245.56 39791.96,246.00"/>
    </edge>
    <edge id=":node_3_3_1" function="internal">
        <lane id=":node_3_3_1_0" index="0" speed="90.11" length="15.16" shape="39776.80,246.00 39791.96,246.00"/>
        <lane id=":node_3_3_1_1" index="1" speed="90.11" length="15.16" shape="39776.80,249.20 39791.96,249.20"/>
        <lane id=":node_3_3_1_2" index="2" speed="90.11" length="15.16" shape="39776.80,252.40 39791.96,252.40"/>
    </edge>
    <edge id=":node_3_4_0" function="internal">
        <lane id=":node_3_4_0_0" index="0" speed="90.11" length="0.10" shape="40000.00,246.00 40000.00,246.00"/>
        <lane id=":node_3_4_0_1" index="1" speed="90.11" length="0.10" shape="40000.00,249.20 40000.00,249.20"/>
        <lane id=":node_3_4_0_2" index="2" speed="90.11" length="0.10" shape="40000.00,252.40 40000.00,252.40"/>
    </edge>
    <edge id=":node_3_5_0" function="internal">
        <lane id=":node_3_5_0_0" index="0" speed="25.00" length="6.22" shape="39701.60,199.55 39701.79,201.16 39702.37,202.53 39703.34,203.67 39704.70,204.56"/>
    </edge>
    <edge id=":node_3_5_1" function="internal">
        <lane id=":node_3_5_1_0" index="0" speed="25.00" length="1.44" shape="39701.60,199.55 39700.80,200.75"/>
    </edge>
    <edge id=":node_3_5_4" function="internal">
        <lane id=":node_3_5_4_0" index="0" speed="25.00" length="3.23" shape="39700.80,200.75 39700.00,201.15 39699.20,200.75 39698.40,199.55"/>
    </edge>
    <edge id=":node_3_5_2" function="internal">
        <lane id=":node_3_5_2_0" index="0" speed="25.00" length="6.22" shape="39695.30,204.56 39696.66,203.67 39697.63,202.53 39698.21,201.16 39698.40,199.55"/>
    </edge>
    <edge id=":node_3_5_3" function="internal">
        <lane id=":node_3_5_3_0" index="0" speed="25.00" length="5.85" shape="39695.30,204.56 39697.65,203.68 39700.00,203.39 39700.97,203.51"/>
    </edge>
    <edge id=":node_3_5_5" function="internal">
        <lane id=":node_3_5_5_0" index="0" speed="25.00" length="3.90" shape="39700.97,203.51 39702.35,203.68 39704.70,204.56"/>
    </edge>
    <edge id=":node_3_6_0" function="internal">
        <lane id=":node_3_6_0_0" index="0" speed="25.00" length="0.10" shape="39698.40,4.00 39698.40,4.00"/>
    </edge>
    <edge id=":node_3_6_1" function="internal">
        <lane id=":node_3_6_1_0" index="0" speed="25.00" length="2.34" shape="39698.40,4.00 39699.20,2.80 39700.00,2.40"/>
    </edge>
    <edge id=":node_3_6_4" function="internal">
        <lane id=":node_3_6_4_0" index="0" speed="25.00" length="2.34" shape="39700.00,2.40 39700.80,2.80 39701.60,4.00"/>
    </edge>
    <edge id=":node_3_6_2" function="internal">
        <lane id=":node_3_6_2_0" index="0" speed="25.00" length="0.10" shape="39701.60,4.00 39701.60,4.00"/>
    </edge>
    <edge id=":node_3_6_3" function="internal">
        <lane id=":node_3_6_3_0" index="0" speed="25.00" length="2.34" shape="39701.60,4.00 39700.80,5.20 39700.00,5.60"/>
    </edge>
    <edge id=":node_3_6_5" function="internal">
        <lane id=":node_3_6_5_0" index="0" speed="25.00" length="2.34" shape="39700.00,5.60 39699.20,5.20 39698.40,4.00"/>
    </edge>
    <edge id=":node_3_7_0" function="internal">
        <lane id=":node_3_7_0_0" index="0" speed="25.00" length="4.67" shape="39698.40,0.00 39699.20,-1.20 39700.00,-1.60 39700.80,-1.20 39701.60,0.00"/>
    </edge>
    <edge id=":node_4_1_0" function="internal">
        <lane id=":node_4_1_0_0" index="0" speed="90.11" length="0.10" shape="49400.00,246.00 49400.00,246.00"/>
        <lane id=":node_4_1_0_1" index="1" speed="90.11" length="0.10" shape="49400.00,249.20 49400.00,249.20"/>
        <lane id=":node_4_1_0_2" index="2" speed="90.11" length="0.10" shape="49400.00,252.40 49400.00,252.40"/>
    </edge>
    <edge id=":node_4_2_0" function="internal">
        <lane id=":node_4_2_0_0" index="0" speed="57.55" length="15.06" shape="49608.04,246.00 49612.73,245.56 49616.16,244.43 49619.03,242.88 49622.06,241.18"/>
    </edge>
    <edge id=":node_4_2_1" function="internal">
        <lane id=":node_4_2_1_0" index="0" speed="90.11" length="15.16" shape="49608.04,246.00 49623.20,246.00"/>
        <lane id=":node_4_2_1_1" index="1" speed="90.11" length="15.16" shape="49608.04,249.20 49623.20,249.20"/>
        <lane id=":node_4_2_1_2" index="2" speed="90.11" length="15.16" shape="49608.04,252.40 49623.20,252.40"/>
    </edge>
    <edge id=":node_4_3_0" function="internal">
        <lane id=":node_4_3_0_0" index="0" speed="57.55" length="15.06" shape="49777.94,241.18 49780.97,242.88 49783.84,244.43 49787.27,245.56 49791.96,246.00"/>
    </edge>
    <edge id=":node_4_3_1" function="internal">
        <lane id=":node_4_3_1_0" index="0" speed="90.11" length="15.16" shape="49776.80,246.00 49791.96,246.00"/>
        <lane id=":node_4_3_1_1" index="1" speed="90.11" length="15.16" shape="49776.80,249.20 49791.96,249.20"/>
        <lane id=":node_4_3_1_2" index="2" speed="90.11" length="15.16" shape="49776.80,252.40 49791.96,252.40"/>
    </edge>
    <edge id=":node_4_5_0" function="internal">
        <lane id=":node_4_5_0_0" index="0" speed="25.00" length="6.22" shape="49701.60,199.55 49701.79,201.16 49702.37,202.53 49703.34,203.67 49704.70,204.56"/>
    </edge>
    <edge id=":node_4_5_1" function="internal">
        <lane id=":node_4_5_1_0" index="0" speed="25.00" length="1.44" shape="49701.60,199.55 49700.80,200.75"/>
    </edge>
    <edge id=":node_4_5_4" function="internal">
        <lane id=":node_4_5_4_0" index="0" speed="25.00" length="3.23" shape="49700.80,200.75 49700.00,201.15 49699.20,200.75 49698.40,199.55"/>
    </edge>
    <edge id=":node_4_5_2" function="internal">
        <lane id=":node_4_5_2_0" index="0" speed="25.00" length="6.22" shape="49695.30,204.56 49696.66,203.67 49697.63,202.53 49698.21,201.16 49698.40,199.55"/>
    </edge>
    <edge id=":node_4_5_3" function="internal">
        <lane id=":node_4_5_3_0" index="0" speed="25.00" length="5.85" shape="49695.30,204.56 49697.65,203.68 49700.00,203.39 49700.97,203.51"/>
    </edge>
    <edge id=":node_4_5_5" function="internal">
        <lane id=":node_4_5_5_0" index="0" speed="25.00" length="3.90" shape="49700.97,203.51 49702.35,203.68 49704.70,204.56"/>
    </edge>
    <edge id=":node_4_6_0" function="internal">
        <lane id=":node_4_6_0_0" index="0" speed="25.00" length="0.10" shape="49698.40,4.00 49698.40,4.00"/>
    </edge>
    <edge id=":node_4_6_1" function="internal">
        <lane id=":node_4_6_1_0" index="0" speed="25.00" length="2.34" shape="49698.40,4.00 49699.20,2.80 49700.00,2.40"/>
    </edge>
    <edge id=":node_4_6_4" function="internal">
        <lane id=":node_4_6_4_0" index="0" speed="25.00" length="2.34" shape="49700.00,2.40 49700.80,2.80 49701.60,4.00"/>
    </edge>
    <edge id=":node_4_6_2" function="internal">
        <lane id=":node_4_6_2_0" index="0" speed="25.00" length="0.10" shape="49701.60,4.00 49701.60,4.00"/>
    </edge>
    <edge id=":node_4_6_3" function="internal">
        <lane id=":node_4_6_3_0" index="0" speed="25.00" length="2.34" shape="49701.60,4.00 49700.80,5.20 49700.00,5.60"/>
    </edge>
    <edge id=":node_4_6_5" function="internal">
        <lane id=":node_4_6_5_0" index="0" speed="25.00" length="2.34" shape="49700.00,5.60 49699.20,5.20 49698.40,4.00"/>
    </edge>
    <edge id=":node_4_7_0" function="internal">
        <lane id=":node_4_7_0_0" index="0" speed="25.00" length="4.67" shape="49698.40,0.00 49699.20,-1.20 49700.00,-1.60 49700.80,-1.20 49701.60,0.00"/>
    </edge>

    <edge id="absorption_0" from="node_0_6" to="node_0_7" priority="7">
        <lane id="absorption_0_0" index="0" speed="25.00" length="4.00" shape="9698.40,4.00 9698.40,0.00"/>
    </edge>
    <edge id="absorption_1" from="node_1_6" to="node_1_7" priority="7">
        <lane id="absorption_1_0" index="0" speed="25.00" length="4.00" shape="19698.40,4.00 19698.40,0.00"/>
    </edge>
    <edge id="absorption_2" from="node_2_6" to="node_2_7" priority="7">
        <lane id="absorption_2_0" index="0" speed="25.00" length="4.00" shape="29698.40,4.00 29698.40,0.00"/>
    </edge>
    <edge id="absorption_3" from="node_3_6" to="node_3_7" priority="7">
        <lane id="absorption_3_0" index="0" speed="25.00" length="4.00" shape="39698.40,4.00 39698.40,0.00"/>
    </edge>
    <edge id="absorption_4" from="node_4_6" to="node_4_7" priority="7">
        <lane id="absorption_4_0" index="0" speed="25.00" length="4.00" shape="49698.40,4.00 49698.40,0.00"/>
    </edge>
    <edge id="edge_0_0" from="node_0_0" to="node_0_1" priority="7">
        <lane id="edge_0_0_0" index="0" speed="90.11" length="9400.00" shape="0.00,246.00 9400.00,246.00"/>
        <lane id="edge_0_0_1" index="1" speed="90.11" length="9400.00" shape="0.00,249.20 9400.00,249.20"/>
        <lane id="edge_0_0_2" index="2" speed="90.11" length="9400.00" shape="0.00,252.40 9400.00,252.40"/>
    </edge>
    <edge id="edge_0_1" from="node_0_1" to="node_0_2" priority="7">
        <lane id="edge_0_1_0" index="0" speed="90.11" length="208.04" shape="9400.00,246.00 9608.04,246.00"/>
        <lane id="edge_0_1_1" index="1" speed="90.11" length="208.04" shape="9400.00,249.20 9608.04,249.20"/>
        <lane id="edge_0_1_2" index="2" speed="90.11" length="208.04" shape="9400.00,252.40 9608.04,252.40"/>
    </edge>
    <edge id="edge_0_2" from="node_0_2" to="node_0_3" priority="7">
        <lane id="edge_0_2_0" index="0" speed="90.11" length="153.60" shape="9623.20,246.00 9776.80,246.00"/>
        <lane id="edge_0_2_1" index="1" speed="90.11" length="153.60" shape="9623.20,249.20 9776.80,249.20"/>
        <lane id="edge_0_2_2" index="2" speed="90.11" length="153.60" shape="9623.20,252.40 9776.80,252.40"/>
    </edge>
    <edge id="edge_0_3" from="node_0_3" to="node_0_4" priority="7">
        <lane id="edge_0_3_0" index="0" speed="90.11" length="208.04" shape="9791.96,246.00 10000.00,246.00"/>
        <lane id="edge_0_3_1" index="1" speed="90.11" length="208.04" shape="9791.96,249.20 10000.00,249.20"/>
        <lane id="edge_0_3_2" index="2" speed="90.11" length="208.04" shape="9791.96,252.40 10000.00,252.40"/>
    </edge>
    <edge id="edge_0_4" from="node_0_2" to="node_0_5" priority="7">
        <lane id="edge_0_4_0" index="0" speed="25.00" length="81.89" shape="9622.06,241.18 9695.30,204.56"/>
    </edge>
    <edge id="edge_0_5" from="node_0_5" to="node_0_3" priority="7">
        <lane id="edge_0_5_0" index="0" speed="25.00" length="81.89" shape="9704.70,204.56 9777.94,241.18"/>
    </edge>
    <edge id="edge_0_6" from="node_0_5" to="node_0_6" priority="7">
        <lane id="edge_0_6_0" index="0" speed="25.00" length="195.55" shape="9698.40,199.55 9698.40,4.00"/>
    </edge>
    <edge id="edge_0_7" from="node_0_6" to="node_0_5" priority="7">
        <lane id="edge_0_7_0" index="0" speed="25.00" length="195.55" shape="9701.60,4.00 9701.60,199.55"/>
    </edge>
    <edge id="edge_1_0" from="node_0_4" to="node_1_1" priority="7">
        <lane id="edge_1_0_0" index="0" speed="90.11" length="9400.00" shape="10000.00,246.00 19400.00,246.00"/>
        <lane id="edge_1_0_1" index="1" speed="90.11" length="9400.00" shape="10000.00,249.20 19400.00,249.20"/>
        <lane id="edge_1_0_2" index="2" speed="90.11" length="9400.00" shape="10000.00,252.40 19400.00,252.40"/>
    </edge>
    <edge id="edge_1_1" from="node_1_1" to="node_1_2" priority="7">
        <lane id="edge_1_1_0" index="0" speed="90.11" length="208.04" shape="19400.00,246.00 19608.04,246.00"/>
        <lane id="edge_1_1_1" index="1" speed="90.11" length="208.04" shape="19400.00,249.20 19608.04,249.20"/>
        <lane id="edge_1_1_2" index="2" speed="90.11" length="208.04" shape="19400.00,252.40 19608.04,252.40"/>
    </edge>
    <edge id="edge_1_2" from="node_1_2" to="node_1_3" priority="7">
        <lane id="edge_1_2_0" index="0" speed="90.11" length="153.60" shape="19623.20,246.00 19776.80,246.00"/>
        <lane id="edge_1_2_1" index="1" speed="90.11" length="153.60" shape="19623.20,249.20 19776.80,249.20"/>
        <lane id="edge_1_2_2" index="2" speed="90.11" length="153.60" shape="19623.20,252.40 19776.80,252.40"/>
    </edge>
    <edge id="edge_1_3" from="node_1_3" to="node_1_4" priority="7">
        <lane id="edge_1_3_0" index="0" speed="90.11" length="208.04" shape="19791.96,246.00 20000.00,246.00"/>
        <lane id="edge_1_3_1" index="1" speed="90.11" length="208.04" shape="19791.96,249.20 20000.00,249.20"/>
        <lane id="edge_1_3_2" index="2" speed="90.11" length="208.04" shape="19791.96,252.40 20000.00,252.40"/>
    </edge>
    <edge id="edge_1_4" from="node_1_2" to="node_1_5" priority="7">
        <lane id="edge_1_4_0" index="0" speed="25.00" length="81.89" shape="19622.06,241.18 19695.30,204.56"/>
    </edge>
    <edge id="edge_1_5" from="node_1_5" to="node_1_3" priority="7">
        <lane id="edge_1_5_0" index="0" speed="25.00" length="81.89" shape="19704.70,204.56 19777.94,241.18"/>
    </edge>
    <edge id="edge_1_6" from="node_1_5" to="node_1_6" priority="7">
        <lane id="edge_1_6_0" index="0" speed="25.00" length="195.55" shape="19698.40,199.55 19698.40,4.00"/>
    </edge>
    <edge id="edge_1_7" from="node_1_6" to="node_1_5" priority="7">
        <lane id="edge_1_7_0" index="0" speed="25.00" length="195.55" shape="19701.60,4.00 19701.60,199.55"/>
    </edge>
    <edge id="edge_2_0" from="node_1_4" to="node_2_1" priority="7">
        <lane id="edge_2_0_0" index="0" speed="90.11" length="9400.00" shape="20000.00,246.00 29400.00,246.00"/>
        <lane id="edge_2_0_1" index="1" speed="90.11" length="9400.00" shape="20000.00,249.20 29400.00,249.20"/>
        <lane id="edge_2_0_2" index="2" speed="90.11" length="9400.00" shape="20000.00,252.40 29400.00,252.40"/>
    </edge>
    <edge id="edge_2_1" from="node_2_1" to="node_2_2" priority="7">
        <lane id="edge_2_1_0" index="0" speed="90.11" length="208.04" shape="29400.00,246.00 29608.04,246.00"/>
        <lane id="edge_2_1_1" index="1" speed="90.11" length="208.04" shape="29400.00,249.20 29608.04,249.20"/>